/*--------------------------------*- C++ -*----------------------------------*\
| =========                 |                                                 |
| \\      /  F ield         | OpenFOAM: The Open Source CFD Toolbox           |
|  \\    /   O peration     | Version:  2.4.x                                 |
|   \\  /    A nd           | Web:      www.OpenFOAM.org                      |
|    \\/     M anipulation  |                                                 |
\*---------------------------------------------------------------------------*/
FoamFile
{
    version     2.0;
    format      ascii;
    class       polyBoundaryMesh;
    location    "constant/polyMesh";
    object      boundary;
}
// * * * * * * * * * * * * * * * * * * * * * * * * * * * * * * * * * * * * * //

5
(
    frontAndBack
    {
        type            empty;
        inGroups        1(empty);
        nFaces          6774;
        startFace       22930;
    }
    interno
    {
        type            patch;
        nFaces          164;
        startFace       29704;
    }
    externo
    {
        type            patch;
        nFaces          368;
        startFace       29868;
    }
    symHor
    {
        type            symmetryPlane;
        inGroups        1(symmetryPlane);
        nFaces          116;
        startFace       30236;
    }
    symVert
    {
        type            symmetryPlane;
        inGroups        1(symmetryPlane);
        nFaces          116;
        startFace       30352;
    }
)

// ************************************************************************* //
